Version 4.1
SHEET 1 5664 2264
WIRE 1632 1168 1248 1168
WIRE 1824 1168 1632 1168
WIRE 1904 1168 1824 1168
WIRE 1248 1184 1248 1168
WIRE 1632 1184 1632 1168
WIRE 1904 1216 1904 1168
WIRE 1392 1232 1376 1232
WIRE 1472 1232 1456 1232
WIRE 1824 1232 1824 1168
WIRE 1824 1232 1792 1232
WIRE 1248 1280 1248 1264
WIRE 1472 1328 1440 1328
WIRE 1904 1328 1904 1296
WIRE 1904 1328 1792 1328
WIRE 1984 1328 1904 1328
WIRE 2080 1328 2048 1328
WIRE 2192 1328 2080 1328
WIRE 2304 1328 2192 1328
WIRE 2432 1328 2304 1328
WIRE 1904 1344 1904 1328
WIRE 2192 1344 2192 1328
WIRE 2304 1344 2304 1328
WIRE 2432 1344 2432 1328
WIRE 2080 1376 2080 1328
WIRE 1168 1424 1120 1424
WIRE 1280 1424 1248 1424
WIRE 1472 1424 1280 1424
WIRE 1856 1424 1792 1424
WIRE 1120 1440 1120 1424
WIRE 1280 1440 1280 1424
WIRE 2192 1440 2192 1408
WIRE 2304 1440 2304 1424
WIRE 2432 1440 2432 1408
WIRE 1904 1456 1904 1440
WIRE 1120 1520 1120 1504
WIRE 1280 1520 1280 1504
WIRE 1376 1520 1360 1520
WIRE 1472 1520 1456 1520
WIRE 2080 1520 2080 1456
WIRE 2080 1520 1792 1520
WIRE 2080 1536 2080 1520
WIRE 1632 1584 1632 1568
WIRE 2080 1632 2080 1616
FLAG 1904 1456 0
FLAG 1360 1520 0
FLAG 2080 1632 0
FLAG 1632 1584 0
FLAG 2192 1440 0
FLAG 1280 1520 0
FLAG 1120 1520 0
FLAG 2304 1440 0
FLAG 2432 1440 0
FLAG 1248 1280 0
FLAG 1440 1328 0
FLAG 1376 1232 0
FLAG 2304 1328 OUT
FLAG 1248 1168 IN
SYMBOL NMOS 1856 1344 R0
SYMATTR InstName Q1
SYMATTR Value IRF7811
SYMBOL RES 1472 1504 R90
WINDOW 0 0 56 VBottom 2
WINDOW 3 32 56 VTop 2
SYMATTR InstName R1
SYMATTR Value 68.1K
SYMBOL res 2064 1520 R0
SYMATTR InstName R2
SYMATTR Value 56K
SYMBOL res 2064 1360 R0
SYMATTR InstName R3
SYMATTR Value 499K
SYMBOL ind 1888 1200 R0
SYMATTR InstName L1
SYMATTR Value 10”
SYMBOL schottky 1984 1344 R270
WINDOW 0 32 32 VTop 2
WINDOW 3 0 32 VBottom 2
SYMATTR InstName D1
SYMATTR Value MBR735
SYMBOL polcap 2176 1344 R0
WINDOW 40 27 64 Left 2
WINDOW 3 40 36 Left 2
SYMATTR Value 132”
SYMATTR InstName C1a
SYMATTR SpiceLine Rser=0.00021
SYMBOL polcap 2416 1344 R0
WINDOW 40 27 64 Left 2
WINDOW 3 40 36 Left 2
SYMATTR Value 20”
SYMATTR InstName C1b
SYMATTR SpiceLine Rser=0.00125
SYMBOL res 1264 1408 R90
WINDOW 0 0 56 VBottom 2
WINDOW 3 32 56 VTop 2
SYMATTR InstName R4
SYMATTR Value 8.66K
SYMBOL cap 1104 1440 R0
SYMATTR InstName C2
SYMATTR Value 6.8n
SYMBOL cap 1264 1440 R0
SYMATTR InstName C3
SYMATTR Value 100p
SYMBOL POWERPRODUCTS\\LTC1871 1632 1376 R0
SYMATTR InstName U1
SYMBOL VOLTAGE 1248 1168 R0
WINDOW 123 0 0 Left 0
WINDOW 39 0 0 Left 0
SYMATTR InstName V1
SYMATTR Value 9.6
SYMBOL polcap 1456 1216 R90
WINDOW 0 0 32 VBottom 2
WINDOW 3 32 32 VTop 2
SYMATTR InstName C4
SYMATTR Value 4.7”
SYMBOL current 2304 1344 R0
WINDOW 123 0 0 Left 0
WINDOW 39 0 0 Left 0
SYMATTR InstName I1
SYMATTR Value 2
TEXT 2192 1680 Left 2 !.tran 0 5m 0\n \n.meas TRAN Vout_peak MAX V(OUT)\n.meas TRAN t_peak FIND TIME WHEN V(OUT)=Vout_peak RISE=1\n.meas TRAN Vout_SS AVG V(OUT) FROM 4m TO 5m\n.meas TRAN overshoot PARAM (Vout_peak - Vout_SS) / Vout_SS * 100\n.meas TRAN t_settle FIND TIME WHEN V(OUT)=12.24 FALL=1\n.meas TRAN t_settle2 FIND TIME WHEN V(OUT)=12.00 CROSS=2
TEXT 2192 1600 Left 2 !.meas TRAN Vout_1ms AVG V(OUT) FROM 0.9m TO 1.1m\n.meas TRAN Vout_2ms AVG V(OUT) FROM 1.9m TO 2.1m\n.meas TRAN Vout_3ms AVG V(OUT) FROM 2.9m TO 3.1m
TEXT 912 1816 Left 2 ;FILE 1: LTC1871_Startup_NoCSS.asc â BASELINE STARTUP CHARACTERISATION
TEXT 912 1840 Left 2 ;PURPOSE: Confirm and precisely quantify startup overshoot with no CSS cap (current hardware state)
TEXT 912 1864 Left 2 ;CONFIG: VIN=9.6V fixed | Iload=2A DC (worst-case: full load at startup) | No soft-start cap on RUN pin
TEXT 912 1888 Left 2 ;.tran 0 5m 0 captures FULL startup from t=0 (no Tstart skip â startup IS the subject)
TEXT 912 1912 Left 2 ;KEY METRICS: Vout_peak [V] | overshoot [%] | t_peak [s] | t_settle [s] | Vout_SS [V]
TEXT 912 1936 Left 2 ;HARDWARE RISK: CM4 absolute max ~15V | Overshoot limit: <13.2V (<10%) for safe bring-up
TEXT 912 1968 Left 2 ;Based on: LTC1871_BOM_Caps_Rev4.asc | Changes: VIN fixed 9.6V, I1=2A DC, .tran 0 5m 0
